     192
cluster   1 size    77 pop  77.00% tot_pop  77.00% frame    20  step 20
 O    -0.115  -0.207   0.096
 H     0.371  -0.475  -0.684
 H    -0.655   0.526  -0.198
 O     3.360   3.569   0.279
 H     2.938   2.823   0.705
 H     2.641   4.046  -0.136
 O     0.123   2.976   3.513
 H     0.691   2.603   2.838
 H    -0.488   3.533   3.031
 O     3.443  -0.219   3.318
 H     3.837   0.551   3.728
 H     2.844  -0.563   3.980
 O     1.741   1.265   1.321
 H     0.987   0.725   1.085
 H     2.281   0.697   1.871
 O     5.157   5.161   1.580
 H     4.579   4.503   1.195
 H     4.681   5.481   2.346
 O     1.654   4.548   5.000
 H     0.904   4.132   4.574
 H     1.944   3.910   5.652
 O     4.709   1.755   4.706
 H     4.394   2.304   5.424
 H     5.403   1.224   5.097
 O    -0.274   0.026   6.363
 H     0.385   0.625  -6.087
 H    -0.783   0.559   5.752
 O     3.156   3.259  -5.800
 H     2.685   2.615  -5.271
 H     3.537   3.861  -5.160
 O     0.003   3.426  -3.305
 H     0.479   4.085  -2.800
 H    -0.428   3.922  -4.001
 O     3.157  -0.026  -3.243
 H     3.732   0.509  -2.696
 H     2.783  -0.669  -2.641
 O     1.391   1.540  -4.516
 H     0.818   2.128  -4.023
 H     1.663   0.881  -3.878
 O     4.513   4.910  -4.224
 H     5.141   4.343  -3.775
 H     5.054   5.492  -4.758
 O     1.327   4.964  -1.360
 H     0.698   5.394  -0.781
 H     1.644   5.663  -1.931
 O     4.920   1.877  -1.550
 H     4.453   2.354  -0.865
 H     5.395   1.189  -1.082
 O    -0.188   6.259   0.619
 H     0.633  -6.295   1.044
 H    -0.615   5.671   1.242
 O     3.192  -3.559   0.165
 H     2.886  -4.214   0.793
 H     3.525  -4.071  -0.572
 O     0.213  -3.757   3.230
 H     0.557  -2.965   3.642
 H    -0.360  -3.437   2.534
 O     3.248   5.965   3.286
 H     2.534   5.528   3.751
 H     3.780   6.359   3.977
 O     1.921  -5.343   1.753
 H     1.482  -4.696   2.304
 H     2.385  -5.909   2.369
 O     5.094  -1.710   1.797
 H     4.514  -1.174   2.337
 H     4.514  -2.344   1.377
 O     1.365  -1.690   4.854
 H     0.759  -1.181   5.393
 H     1.806  -2.272   5.473
 O     4.977  -5.739   4.729
 H     5.532  -5.369   4.043
 H     5.591  -6.120   5.356
 O     0.119  -6.031   6.139
 H     0.692   6.181   5.646
 H    -0.526  -5.732   5.499
 O     3.635  -2.948   5.943
 H     4.137  -3.445   5.297
 H     4.239  -2.269   6.245
 O    -0.026  -2.861  -3.719
 H     0.673  -3.472  -3.950
 H    -0.685  -3.403  -3.286
 O     2.641   6.344  -3.096
 H     3.288   5.713  -3.410
 H     2.265  -6.081  -3.892
 O     1.965  -4.604  -5.213
 H     1.359  -4.799  -5.928
 H     2.645  -4.063  -5.615
 O     4.856  -0.915  -5.081
 H     4.170  -0.487  -4.569
 H     5.311  -1.475  -4.451
 O     1.622  -1.762  -1.738
 H     1.867  -2.327  -1.005
 H     0.887  -2.213  -2.153
 O     4.374  -4.647  -2.148
 H     3.764  -5.172  -2.666
 H     4.960  -5.288  -1.745
 O     6.189  -0.070   0.005
 H     5.825  -0.659   0.665
 H    -5.950   0.438   0.475
 O    -3.196   2.996   0.426
 H    -3.633   3.714  -0.032
 H    -2.838   2.448  -0.272
 O     6.174   3.389   3.219
 H     5.643   3.914   2.620
 H     5.539   2.979   3.806
 O    -3.333  -0.247   2.995
 H    -3.716   0.439   2.449
 H    -2.817   0.226   3.648
 O    -5.179   1.613   1.633
 H    -4.465   2.221   1.439
 H    -5.664   2.031   2.345
 O    -1.542   4.647   2.265
 H    -1.807   4.042   1.572
 H    -2.268   5.268   2.332
 O    -4.788   4.853   4.706
 H    -5.448   4.411   4.173
 H    -4.359   5.460   4.103
 O    -1.687   1.371   4.692
 H    -1.049   1.786   4.111
 H    -2.118   2.102   5.136
 O    -6.089   0.428   6.160
 H     6.174   0.053  -5.942
 H    -5.703  -0.330   5.721
 O    -2.722   3.525   6.110
 H    -3.348   3.958   5.530
 H    -3.264   3.088  -6.034
 O    -6.213   3.562  -3.226
 H     5.955   2.914  -2.914
 H    -5.644   3.075  -3.821
 O    -3.488   0.034  -2.688
 H    -3.013  -0.516  -3.310
 H    -4.162  -0.540  -2.324
 O    -4.194   1.927  -4.891
 H    -4.512   1.384  -5.612
 H    -4.074   1.315  -4.164
 O    -1.426   5.334  -5.084
 H    -0.834   5.939  -5.533
 H    -1.831   4.828  -5.789
 O    -4.203   4.829  -1.622
 H    -4.778   4.309  -2.183
 H    -3.661   5.329  -2.232
 O    -1.730   1.660  -1.377
 H    -1.259   2.262  -1.953
 H    -2.469   1.353  -1.902
 O     6.090  -6.391  -0.862
 H     5.810   5.763  -0.213
 H    -5.976   5.994  -1.314
 O    -2.793  -3.333  -0.300
 H    -2.324  -2.996   0.463
 H    -3.066  -2.550  -0.779
 O     6.322  -3.662   3.339
 H     5.800  -3.073   2.794
 H    -5.758  -3.938   2.772
 O    -3.446  -6.295   2.840
 H    -3.918  -5.831   2.148
 H    -3.059  -5.602   3.373
 O    -4.915  -4.926   0.947
 H    -5.454  -5.435   0.342
 H    -4.415  -4.335   0.384
 O    -1.343  -2.055   1.658
 H    -0.855  -1.316   1.296
 H    -2.109  -1.657   2.071
 O    -5.250  -1.457   4.528
 H    -4.709  -0.949   3.925
 H    -5.655  -2.129   3.980
 O    -2.100  -4.746   4.640
 H    -1.300  -4.324   4.327
 H    -2.491  -4.108   5.237
 O    -6.355   6.068  -6.268
 H    -5.673   5.717   5.959
 H    -6.055  -5.849  -6.051
 O    -3.254  -3.065  -6.211
 H    -3.940  -2.657   6.060
 H    -2.793  -2.329  -5.808
 O     6.311  -2.835  -3.115
 H     5.649  -3.398  -2.716
 H    -5.997  -3.416  -3.696
 O    -3.162  -6.155  -3.236
 H    -2.641  -6.362  -4.011
 H    -2.523  -5.844  -2.594
 O    -4.985  -4.804  -4.707
 H    -4.444  -4.234  -5.254
 H    -4.392  -5.109  -4.020
 O    -1.911  -1.171  -4.783
 H    -1.464  -0.461  -5.243
 H    -1.205  -1.749  -4.491
 O    -4.921  -1.871  -1.131
 H    -5.447  -1.237  -0.644
 H    -5.543  -2.295  -1.723
 O    -1.268  -5.070  -1.532
 H    -0.998  -5.787  -0.957
 H    -1.737  -4.465  -0.957
     192
cluster   2 size    23 pop  23.00% tot_pop 100.00% frame    87  step 87
 O     1.677  -3.829   2.101
 H     1.834  -2.890   2.008
 H     0.859  -3.888   2.595
 O    -5.547   4.306  -0.021
 H    -5.322   3.975  -0.891
 H     6.362   3.993   0.131
 O    -2.354   5.673  -3.362
 H    -2.943   4.979  -3.067
 H    -1.594   5.210  -3.714
 O     3.478   1.042   3.001
 H     2.862   0.917   3.723
 H     4.162   0.390   3.154
 O     1.977   2.309   0.974
 H     1.387   3.043   1.147
 H     2.281   2.037   1.840
 O    -4.131  -0.565   5.370
 H    -4.884  -0.261   4.863
 H    -3.400  -0.032   5.057
 O    -0.089   3.923   1.638
 H    -0.207   4.353   0.791
 H    -0.633   3.137   1.586
 O     4.723   0.619  -6.286
 H     5.022   0.594  -5.377
 H     4.407  -0.268   6.340
 O    -1.201  -0.645  -6.173
 H    -1.035  -0.069  -5.427
 H    -0.941  -0.130   5.863
 O     1.061   2.271  -5.223
 H     0.846   1.576  -4.601
 H     0.462   2.984  -5.002
 O     0.139   1.635  -1.763
 H     0.715   1.541  -1.004
 H     0.415   2.455  -2.173
 O     2.850  -1.213  -3.647
 H     3.421  -0.469  -3.835
 H     3.022  -1.421  -2.728
 O     0.164  -0.280  -3.809
 H     0.172   0.018  -2.899
 H     0.829  -0.968  -3.842
 O    -6.095   1.519   4.843
 H     6.239   2.002   4.160
 H     6.017   1.225   5.441
 O     0.406   4.208  -3.011
 H    -0.024   4.665  -2.288
 H     0.900   4.890  -3.466
 O     3.458   3.414  -4.480
 H     2.586   3.080  -4.694
 H     3.364   4.366  -4.508
 O    -0.908   5.273  -0.553
 H    -0.453   6.115  -0.556
 H    -1.736   5.451  -0.106
 O     3.049  -1.878  -0.835
 H     3.005  -2.834  -0.860
 H     2.664  -1.642   0.009
 O     3.883  -1.623   4.776
 H     4.569  -2.071   4.281
 H     3.698  -2.207   5.511
 O     2.089   5.969   5.379
 H     1.781  -6.159   4.771
 H     1.292   5.530   5.676
 O     5.640  -3.585   3.545
 H     6.169  -3.756   4.324
 H     6.275  -3.531   2.830
 O     4.925   3.028   0.495
 H     3.971   3.025   0.413
 H     5.084   3.041   1.439
 O     2.095  -1.028   1.486
 H     2.409  -0.158   1.731
 H     1.185  -0.891   1.226
 O     3.209   6.383   1.590
 H     2.843   5.636   2.064
 H     2.574  -5.713   1.724
 O    -1.856  -2.963  -3.632
 H    -1.443  -2.814  -2.782
 H    -1.127  -2.991  -4.252
 O     3.198  -3.194  -5.544
 H     4.048  -3.539  -5.271
 H     3.018  -2.486  -4.926
 O    -1.376  -2.780  -0.785
 H    -2.058  -2.142  -0.995
 H    -1.770  -3.341  -0.117
 O     2.432   5.834  -4.207
 H     2.776  -6.400  -3.516
 H     2.154  -6.362  -4.896
 O     0.324  -3.360  -5.194
 H     1.222  -3.381  -5.524
 H    -0.221  -3.347  -5.981
 O     5.008   0.061  -0.734
 H     4.634   0.858  -0.358
 H     4.334  -0.606  -0.604
 O     0.610  -5.076  -0.090
 H     0.441  -4.322  -0.655
 H     0.962  -4.697   0.716
 O     3.176  -4.997  -1.040
 H     3.863  -5.535  -0.647
 H     2.388  -5.210  -0.540
 O    -1.943   1.968   1.525
 H    -2.728   2.516   1.534
 H    -1.914   1.577   2.398
 O     6.289   5.589  -5.786
 H     5.497   5.351  -6.269
 H    -6.257   4.786  -5.332
 O     3.354   4.012   4.135
 H     2.896   4.708   4.606
 H     3.145   3.215   4.622
 O     1.486   0.604   4.881
 H     1.267   0.895   5.766
 H     1.999  -0.193   5.010
 O    -4.492   3.771  -2.495
 H    -3.903   3.140  -2.081
 H    -4.613   3.437  -3.384
 O    -3.346   6.122   0.935
 H    -4.143   6.022   0.414
 H    -3.524   5.638   1.741
 O    -3.881   5.043   5.989
 H    -4.469   5.795   5.915
 H    -4.375   4.402  -6.300
 O    -2.073  -5.992  -6.258
 H    -2.759   6.146  -6.348
 H    -2.424  -5.368  -5.623
 O    -2.967   1.445  -4.764
 H    -2.882   1.492  -3.812
 H    -3.211   0.536  -4.939
 O    -1.229   1.341   4.337
 H    -0.277   1.240   4.317
 H    -1.369   2.231   4.660
 O     4.544   0.980  -3.651
 H     4.254   1.880  -3.799
 H     4.690   0.926  -2.707
 O    -3.333  -0.955  -1.643
 H    -4.197  -1.107  -1.260
 H    -3.452  -1.116  -2.578
 O    -5.160   2.990  -5.512
 H    -4.543   2.305  -5.256
 H    -5.541   2.676  -6.332
 O    -0.172   5.077  -6.093
 H    -0.475   4.548   5.968
 H    -0.726   5.857  -6.114
 O    -6.016  -3.024  -3.710
 H    -5.537  -2.394  -4.248
 H    -5.356  -3.665  -3.446
 O    -2.782   1.654  -1.843
 H    -1.850   1.706  -1.632
 H    -3.058   0.801  -1.504
 O     5.240   6.390  -0.093
 H     4.527   6.289   0.538
 H     5.816   5.644   0.074
 O    -1.811  -2.281   2.635
 H    -2.179  -2.982   2.097
 H    -1.251  -1.787   2.036
 O     6.163   6.364   3.739
 H    -6.086  -6.364   4.518
 H     5.613  -5.653   3.761
 O    -4.103   3.621   2.431
 H    -4.481   3.856   1.583
 H    -4.760   3.058   2.839
 O     5.848   3.725   2.967
 H     4.936   3.802   3.248
 H     6.246   4.561   3.212
 O    -0.372  -0.903   0.912
 H    -0.949  -0.140   0.931
 H    -0.665  -1.407   0.153
 O    -3.737  -1.300  -4.825
 H    -4.078  -1.327  -5.719
 H    -2.874  -1.710  -4.885
 O    -1.387   4.096   4.554
 H    -2.265   4.201   4.920
 H    -1.535   3.865   3.637
 O    -5.002  -4.865   5.672
 H    -5.750  -4.585   6.199
 H    -4.255  -4.403   6.052
 O    -0.239  -5.605   3.835
 H    -0.385  -4.800   4.332
 H    -0.877  -6.224   4.190
 O     5.567  -4.530  -5.746
 H     5.772  -5.448  -5.925
 H     6.047  -4.330  -4.942
 O    -3.677  -4.712  -3.623
 H    -2.934  -4.113  -3.690
 H    -3.313  -5.502  -3.223
 O    -5.924  -1.886  -1.007
 H    -6.178  -2.221  -1.867
 H     6.299  -1.137  -0.861
 O    -1.044  -2.951   5.152
 H    -1.294  -2.134   5.583
 H    -1.400  -2.874   4.266
 O    -5.975  -3.820   0.968
 H    -5.864  -3.110   0.336
 H     6.377  -4.510   0.478
 O    -3.131  -4.089   1.367
 H    -4.080  -4.074   1.495
 H    -2.902  -5.018   1.382
